Version 4
SHEET 1 2444 1140
WIRE 144 -1248 144 -1264
WIRE 816 -1232 800 -1232
WIRE 800 -1200 800 -1232
WIRE 752 -1184 736 -1184
WIRE 240 -1168 240 -1184
WIRE 432 -1168 400 -1168
WIRE 528 -1168 496 -1168
WIRE 16 -1152 -16 -1152
WIRE 144 -1152 144 -1168
WIRE 752 -1136 736 -1136
WIRE 736 -1120 736 -1136
WIRE 144 -1072 144 -1088
WIRE 240 -1072 240 -1088
WIRE 240 -1072 144 -1072
WIRE 304 -1072 240 -1072
WIRE 400 -1072 400 -1168
WIRE 400 -1072 384 -1072
WIRE 432 -1072 400 -1072
WIRE 528 -1072 528 -1168
WIRE 528 -1072 512 -1072
WIRE 144 -992 144 -1072
WIRE 192 -992 144 -992
WIRE 528 -976 528 -1072
WIRE 528 -976 256 -976
WIRE 560 -976 528 -976
WIRE 32 -960 16 -960
WIRE 144 -960 112 -960
WIRE 192 -960 144 -960
WIRE 144 -944 144 -960
WIRE 144 -848 144 -864
WIRE 272 -656 256 -656
WIRE 400 -656 384 -656
WIRE 1040 -656 1024 -656
WIRE 1168 -656 1152 -656
WIRE 272 -624 256 -624
WIRE 1040 -624 1024 -624
WIRE -352 -608 -368 -608
WIRE -160 -560 -176 -560
WIRE -352 -544 -416 -544
WIRE -416 -528 -416 -544
FLAG 144 -1264 0
FLAG 240 -1184 0
FLAG 144 -848 0
FLAG 16 -960 in
FLAG 224 -1008 v5+
FLAG 224 -944 v5-
FLAG 560 -976 outR
IOPIN 560 -976 Out
FLAG -16 -1152 0
FLAG 16 -1232 v5+
FLAG 16 -1072 v5-
FLAG 736 -1184 in
FLAG 736 -1120 0
FLAG 800 -1120 0
FLAG 816 -1232 outL
IOPIN 816 -1232 Out
FLAG -336 -800 0
FLAG -336 -880 clk
FLAG -368 -608 in
FLAG -160 -560 xn
FLAG -352 -576 0
FLAG 1024 -656 xn
FLAG 1024 -624 clk
FLAG 1168 -656 BQTDout
IOPIN 1168 -656 Out
FLAG 256 -656 xn
FLAG 256 -624 clk
FLAG 400 -656 BQout
IOPIN 400 -656 Out
FLAG -416 -448 0
FLAG -336 -1120 in
FLAG -336 -1040 0
SYMBOL Opamps\\UniversalOpamp2 224 -976 R0
SYMATTR InstName U1
SYMBOL res 528 -1088 R90
WINDOW 0 0 56 VBottom 2
WINDOW 3 32 56 VTop 2
SYMATTR InstName R1
SYMATTR Value 27k
SYMBOL res 400 -1088 R90
WINDOW 0 0 56 VBottom 2
WINDOW 3 32 56 VTop 2
SYMATTR InstName R2
SYMATTR Value 3.3k
SYMBOL res 224 -1184 R0
SYMATTR InstName R3
SYMATTR Value 3.3k
SYMBOL res 128 -1264 R0
SYMATTR InstName R4
SYMATTR Value 910
SYMBOL cap 128 -1152 R0
SYMATTR InstName C1
SYMATTR Value 22n
SYMBOL cap 496 -1184 R90
WINDOW 0 0 32 VBottom 2
WINDOW 3 32 32 VTop 2
SYMATTR InstName C2
SYMATTR Value 22n
SYMBOL res 128 -960 R0
SYMATTR InstName R5
SYMATTR Value 5.1k
SYMBOL res 128 -976 R90
WINDOW 0 0 56 VBottom 2
WINDOW 3 32 56 VTop 2
SYMATTR InstName R6
SYMATTR Value 33k
SYMBOL voltage 16 -1248 R0
WINDOW 3 -6 59 Left 2
SYMATTR Value 5
SYMATTR InstName V3
SYMBOL voltage 16 -1168 R0
WINDOW 3 -5 58 Left 2
WINDOW 123 0 0 Left 0
WINDOW 39 0 0 Left 0
SYMATTR Value 5
SYMATTR InstName V4
SYMBOL e 800 -1216 R0
SYMATTR InstName E1
SYMATTR Value Laplace= 0.75314*(s^2+30765*s+1.5218e8)/(s^2+51634*s+8.4091e7)
SYMBOL voltage -336 -896 R0
WINDOW 123 0 0 Left 0
WINDOW 39 0 0 Left 0
WINDOW 3 -11 127 Left 2
SYMATTR Value SINE(0 1 44100)
SYMATTR InstName V7
SYMBOL SpecialFunctions\\sample -272 -576 R0
SYMATTR InstName A1
SYMBOL IIR2 320 -640 R0
WINDOW 39 -8 111 Bottom 2
SYMATTR SpiceLine a0=0.6182, a1=-0.8914, a2=0.3077, b1=-1.285, b2=0.3101
SYMATTR InstName X6
SYMBOL IIR2TD2 1088 -640 R0
WINDOW 39 -1 110 Bottom 2
SYMATTR SpiceLine a0=0.6182, a1=-0.8914, a2=0.3077, b1=-1.285, b2=0.3101
SYMATTR InstName X1
SYMBOL bv -416 -544 R0
SYMATTR InstName B2
SYMATTR Value V=-V(clk)
SYMBOL bv -336 -1136 R0
SYMATTR InstName B3
SYMATTR Value V=4*white(1e4*time)
TEXT -384 -1256 Left 2 !*.ac dec 101 1 10e6\n.tran 10m
TEXT 864 -1264 Left 2 ;Laplace Filter
TEXT 256 -1264 Left 2 ;Pure Analog Filter
TEXT 1640 -1272 Left 1 ;MATLAB\n \nHa = tf([0.75314 23170.352 1.146e8]  , [1 51634 84091000])\n \n  0.7531 s^2 + 2.317e04 s + 1.146e08\n  ----------------------------------\n       s^2 + 51634 s + 8.409e07\n \nHd = c2d(Ha,1/44.1e3,'matched')\n \n  0.6182 z^2 - 0.8914 z + 0.3077\n  ------------------------------\n      z^2 - 1.285 z + 0.3101\n \nyn = 0.6182*xn - 0.8914*xn-1 + 0.3077*xn-2 - (-1.285)*yn-1 - 0.3101*yn-2\n \n[numd,dend] = bilinear([0.75314 23170.352 1.146e8], [1 51634 84091000], 44.1e3)\nHd = filt(numd,dend)\n \n  0.6456 - 0.9252 z^-1 + 0.3165 z^-2\n  ----------------------------------\n     1 - 1.239 z^-1 + 0.2665 z^-2
TEXT -384 -1160 Left 2 ;Noise source
TEXT -384 -944 Left 2 ;Sample clock
TEXT -384 -680 Left 2 ;Sampler
TEXT 256 -720 Left 2 ;BiQuad direct form 1
TEXT 976 -720 Left 2 ;BiQuad transposed direct form 2
