Version 4
SHEET 1 1632 700
WIRE 208 112 80 112
WIRE 336 112 304 112
WIRE 208 144 160 144
WIRE 160 208 160 144
WIRE 160 208 96 208
WIRE 64 288 32 288
WIRE 32 352 32 288
WIRE 208 352 32 352
WIRE 336 352 304 352
WIRE 32 384 32 352
WIRE 160 384 160 208
WIRE 208 384 160 384
FLAG 32 464 0
FLAG 80 112 xn
IOPIN 80 112 In
FLAG 336 112 xn-1
FLAG 64 288 yn
IOPIN 64 288 Out
FLAG 336 352 yn-1
FLAG 96 208 Clk
IOPIN 96 208 In
SYMBOL Z-1 256 128 R0
SYMATTR InstName X1
SYMBOL Z-1 256 368 R0
SYMATTR InstName X5
SYMBOL bv 32 368 R0
WINDOW 3 20 106 Left 2
SYMATTR Value V=(v(xn)*a0+v(xn-1)*a1-v(yn-1)*b1)
SYMATTR InstName B1
TEXT 56 504 Left 2 !.param a0=0 a1=0
TEXT 56 528 Left 2 !.param b1=0
