Version 4
SHEET 1 1632 700
WIRE 208 144 128 144
WIRE 336 144 304 144
WIRE 368 144 336 144
WIRE 496 144 464 144
WIRE 208 176 176 176
WIRE 368 176 336 176
WIRE 176 240 176 176
WIRE 176 240 128 240
WIRE 336 240 336 176
WIRE 336 240 176 240
WIRE 80 320 64 320
WIRE 64 352 64 320
WIRE 208 352 64 352
WIRE 336 352 304 352
WIRE 384 352 336 352
WIRE 512 352 480 352
WIRE 64 368 64 352
WIRE 176 384 176 240
WIRE 208 384 176 384
WIRE 384 384 352 384
WIRE 176 448 176 384
WIRE 352 448 352 384
WIRE 352 448 176 448
FLAG 64 448 0
FLAG 128 144 xn
IOPIN 128 144 In
FLAG 336 144 xn-1
FLAG 496 144 xn-2
FLAG 80 320 yn
IOPIN 80 320 Out
FLAG 336 352 yn-1
FLAG 512 352 yn-2
FLAG 128 240 Clk
IOPIN 128 240 In
SYMBOL Z-1 256 160 R0
SYMATTR InstName X1
SYMBOL Z-1 416 160 R0
SYMATTR InstName X2
SYMBOL Z-1 256 368 R0
SYMATTR InstName X3
SYMBOL Z-1 432 368 R0
SYMATTR InstName X4
SYMBOL bv 64 352 R0
WINDOW 3 -19 131 Left 2
SYMATTR Value V=v(xn)*a0 + v(xn-1)*a1 + v(xn-2)*a2 - v(yn-1)*b1 - v(yn-2)*b2
SYMATTR InstName B1
TEXT 40 528 Left 2 !.param a0=0 a1=0 a2=0
TEXT 40 552 Left 2 !.param b1=0 b2=0
TEXT 168 56 Left 2 ;Biquad Direct form 1
