Version 4
SHEET 1 880 680
WIRE -176 112 -192 112
WIRE 128 160 0 160
WIRE -176 176 -192 176
WIRE 320 208 304 208
WIRE 128 224 48 224
WIRE 48 240 48 224
FLAG -192 176 Clk
IOPIN -192 176 In
FLAG -192 112 in
IOPIN -192 112 In
FLAG 320 208 out
IOPIN 320 208 Out
FLAG 128 192 0
FLAG -176 144 0
FLAG 48 320 0
SYMBOL SpecialFunctions\\sample -96 144 R0
SYMATTR InstName A1
SYMBOL SpecialFunctions\\sample 208 192 R0
SYMATTR InstName A2
SYMBOL bv 48 224 R0
SYMATTR InstName B1
SYMATTR Value V=-V(Clk)
TEXT -352 424 Left 2 ;Note:  Input is sampled at the rising edge of  CLK.  Output is updated on the falling edge of CLK.\nThis guarantees a simulation time step between the sample point and the update point - \nallowing these blocks to be directly cascaded.
